electric-grid/physical/synthetic/synAustinTD/models/syn-austin-D_only-v03/P4U/base/opendss/p4uhs7_1247/Master.dss
Clear

New Circuit.substation_p4uhs7_69 bus1=p4uhs7_69 pu=1.0 basekV=69.0 R1=1e-05 X1=1e-05 R0=1e-05 X0=1e-05

Redirect Transformers.dss
Redirect p4uhs7_1247--p4udt5694/Transformers.dss
Redirect p4uhs7_1247--p4udt8751/Transformers.dss
Redirect p4uhs7_1247--p4udt22221/Transformers.dss
Redirect p4uhs7_1247--p4udt10974/Transformers.dss
Redirect Regulators.dss
Redirect p4uhs7_1247--p4udt5694/Loads.dss
Redirect p4uhs7_1247--p4udt10974/Loads.dss
Redirect p4uhs7_1247--p4udt22221/Loads.dss
Redirect p4uhs7_1247--p4udt8751/Loads.dss
Redirect LineCodes.dss
Redirect p4uhs7_1247--p4udt5694/LineCodes.dss
Redirect p4uhs7_1247--p4udt8751/LineCodes.dss
Redirect p4uhs7_1247--p4udt22221/LineCodes.dss
Redirect p4uhs7_1247--p4udt10974/LineCodes.dss
Redirect Lines.dss
Redirect p4uhs7_1247--p4udt5694/Lines.dss
Redirect p4uhs7_1247--p4udt8751/Lines.dss
Redirect p4uhs7_1247--p4udt22221/Lines.dss
Redirect p4uhs7_1247--p4udt10974/Lines.dss
Redirect p4uhs7_1247--p4udt5694/Capacitors.dss
Redirect p4uhs7_1247--p4udt22221/Capacitors.dss
Redirect p4uhs7_1247--p4udt10974/Capacitors.dss
Redirect p4uhs7_1247--p4udt8751/Capacitors.dss

Set Voltagebases=[0.2080002494301389, 0.48, 7.199560000000001, 12.47, 69.0]

Calcvoltagebases

Buscoords Buscoords.dss

Solve